
OS:Version,
  {add22e75-5fa1-4e3d-96be-bc9dcf3cd0dc}, !- Handle
  3.0.0;                                  !- Version Identifier

OS:Site,
  {9b1369cd-7edd-4568-8c2e-70c9d0dea3cf}, !- Handle
  Site 1,                                 !- Name
  ,                                       !- Latitude {deg}
  ,                                       !- Longitude {deg}
  ,                                       !- Time Zone {hr}
  ,                                       !- Elevation {m}
  ;                                       !- Terrain

OS:YearDescription,
  {e0a5d7ef-6be5-4499-b29b-661e33b8f6f1}; !- Handle

OS:ClimateZones,
  {872bdf8f-4d11-4115-96e8-d115078cdc0c}, !- Handle
  ASHRAE,                                 !- Climate Zone Institution Name 1
  ANSI/ASHRAE Standard 169,               !- Climate Zone Document Name 1
  2006,                                   !- Climate Zone Document Year 1
  ,                                       !- Climate Zone Value 1
  CEC,                                    !- Climate Zone Institution Name 2
  California Climate Zone Descriptions,   !- Climate Zone Document Name 2
  1995,                                   !- Climate Zone Document Year 2
  ;                                       !- Climate Zone Value 2

OS:Building,
  {6454b4bd-0187-40e1-afa5-822e783cea3e}, !- Handle
  Building 1,                             !- Name
  ,                                       !- Building Sector Type
  ,                                       !- North Axis {deg}
  ,                                       !- Nominal Floor to Floor Height {m}
  ,                                       !- Space Type Name
  ,                                       !- Default Construction Set Name
  ;                                       !- Default Schedule Set Name

OS:Facility,
  {d03a7279-5170-41a6-814d-40173b3cea52}; !- Handle

OS:SimulationControl,
  {7dc59d1d-c358-4dfc-bec8-0659b103221a}; !- Handle

OS:Sizing:Parameters,
  {79548a34-50bf-4f8e-b7fc-7f35af1924b3}, !- Handle
  1.25,                                   !- Heating Sizing Factor
  1.15;                                   !- Cooling Sizing Factor

OS:Timestep,
  {f4239058-19ef-41e9-996a-62f6e178da58}, !- Handle
  6;                                      !- Number of Timesteps per Hour

OS:ShadowCalculation,
  {be8ccdbf-9d55-4756-84bb-070e2b9a8b5d}, !- Handle
  PolygonClipping,                        !- Shading Calculation Method
  ,                                       !- Shading Calculation Update Frequency Method
  20,                                     !- Shading Calculation Update Frequency
  15000,                                  !- Maximum Figures in Shadow Overlap Calculations
  ,                                       !- Polygon Clipping Algorithm
  512,                                    !- Pixel Counting Resolution
  ,                                       !- Sky Diffuse Modeling Algorithm
  No,                                     !- Output External Shading Calculation Results
  No,                                     !- Disable Self-Shading Within Shading Zone Groups
  No;                                     !- Disable Self-Shading From Shading Zone Groups to Other Zones

OS:HeatBalanceAlgorithm,
  {0b0df428-b272-47e6-8184-1492ba2f812c}, !- Handle
  ConductionTransferFunction,             !- Algorithm
  200;                                    !- Surface Temperature Upper Limit {C}

OS:RunPeriod,
  {b1fd3902-340d-4472-b7c8-5fc10d76291c}, !- Handle
  Run Period 1,                           !- Name
  1,                                      !- Begin Month
  1,                                      !- Begin Day of Month
  12,                                     !- End Month
  31,                                     !- End Day of Month
  ,                                       !- Use Weather File Holidays and Special Days
  ,                                       !- Use Weather File Daylight Saving Period
  ,                                       !- Apply Weekend Holiday Rule
  ,                                       !- Use Weather File Rain Indicators
  ,                                       !- Use Weather File Snow Indicators
  ;                                       !- Number of Times Runperiod to be Repeated

OS:LifeCycleCost:Parameters,
  {c211b0a8-1a20-4f77-bbeb-8dc4324464b0}, !- Handle
  ,                                       !- Analysis Type
  ,                                       !- Discounting Convention
  ,                                       !- Inflation Approach
  ,                                       !- Real Discount Rate
  ,                                       !- Nominal Discount Rate
  ,                                       !- Inflation
  ,                                       !- Base Date Month
  ,                                       !- Base Date Year
  ,                                       !- Service Date Month
  ,                                       !- Service Date Year
  ;                                       !- Length of Study Period in Years

OS:Construction,
  {c6bdd506-2320-4427-8626-177540db37eb}, !- Handle
  ASHRAE 189.1-2009 ExtRoof IEAD ClimateZone 1, !- Name
  ,                                       !- Surface Rendering Name
  {274ab193-a8c4-4cd8-8607-cdc4c7bec38e}, !- Layer 1
  {7d4e2ba2-9c64-4955-a2fd-5777252ed18a}, !- Layer 2
  {7b5a78f3-8694-4c8e-b2ab-d56be5cd0dbd}; !- Layer 3

OS:Material,
  {274ab193-a8c4-4cd8-8607-cdc4c7bec38e}, !- Handle
  Roof Membrane,                          !- Name
  VeryRough,                              !- Roughness
  0.0095,                                 !- Thickness {m}
  0.16,                                   !- Conductivity {W/m-K}
  1121.29,                                !- Density {kg/m3}
  1460,                                   !- Specific Heat {J/kg-K}
  0.9,                                    !- Thermal Absorptance
  0.7,                                    !- Solar Absorptance
  0.7;                                    !- Visible Absorptance

OS:StandardsInformation:Material,
  {0dec0fb7-854c-422c-aded-cc15f11c7bc2}, !- Handle
  {274ab193-a8c4-4cd8-8607-cdc4c7bec38e}; !- Material Name

OS:Material,
  {7d4e2ba2-9c64-4955-a2fd-5777252ed18a}, !- Handle
  Roof Insulation [18],                   !- Name
  MediumRough,                            !- Roughness
  0.1693,                                 !- Thickness {m}
  0.049,                                  !- Conductivity {W/m-K}
  265,                                    !- Density {kg/m3}
  836.800000000001,                       !- Specific Heat {J/kg-K}
  0.9,                                    !- Thermal Absorptance
  0.7,                                    !- Solar Absorptance
  0.7;                                    !- Visible Absorptance

OS:StandardsInformation:Material,
  {18599682-9ea1-4243-88d2-6fdc04033875}, !- Handle
  {7d4e2ba2-9c64-4955-a2fd-5777252ed18a}; !- Material Name

OS:Material,
  {7b5a78f3-8694-4c8e-b2ab-d56be5cd0dbd}, !- Handle
  Metal Decking,                          !- Name
  MediumSmooth,                           !- Roughness
  0.0015,                                 !- Thickness {m}
  45.006,                                 !- Conductivity {W/m-K}
  7680,                                   !- Density {kg/m3}
  418.4,                                  !- Specific Heat {J/kg-K}
  0.9,                                    !- Thermal Absorptance
  0.6,                                    !- Solar Absorptance
  0.6;                                    !- Visible Absorptance

OS:StandardsInformation:Material,
  {7052a85e-5a25-40a5-a827-0ab5f7f94891}, !- Handle
  {7b5a78f3-8694-4c8e-b2ab-d56be5cd0dbd}; !- Material Name

OS:StandardsInformation:Construction,
  {fb032a57-83e4-41ba-9842-fe44d1b51c43}, !- Handle
  {c6bdd506-2320-4427-8626-177540db37eb}, !- Construction Name
  ExteriorRoof,                           !- Intended Surface Type
  IEAD,                                   !- Standards Construction Type
  ,                                       !- Perturbable Layer
  ,                                       !- Perturbable Layer Type
  ,                                       !- Other Perturbable Layer Type
  ASHRAE 189.1-2009;                      !- Construction Standard

