
OS:Version,
  {234bad42-c69d-452d-86a8-e498d12826e3}, !- Handle
  3.1.0;                                  !- Version Identifier

OS:Site,
  {0a47005a-e1f0-4733-83f4-5c3065a35158}, !- Handle
  Site 1,                                 !- Name
  ,                                       !- Latitude {deg}
  ,                                       !- Longitude {deg}
  ,                                       !- Time Zone {hr}
  ,                                       !- Elevation {m}
  ;                                       !- Terrain

OS:YearDescription,
  {06d401e9-d42f-43f4-b264-4efa8a9bf392}; !- Handle

OS:ClimateZones,
  {5b8e7edf-f7bf-4206-a950-4f4f955bc461}, !- Handle
  ASHRAE,                                 !- Climate Zone Institution Name 1
  ANSI/ASHRAE Standard 169,               !- Climate Zone Document Name 1
  2006,                                   !- Climate Zone Document Year 1
  ,                                       !- Climate Zone Value 1
  CEC,                                    !- Climate Zone Institution Name 2
  California Climate Zone Descriptions,   !- Climate Zone Document Name 2
  1995,                                   !- Climate Zone Document Year 2
  ;                                       !- Climate Zone Value 2

OS:Building,
  {fac13d28-88b2-4141-b626-30df7c0168f7}, !- Handle
  Building 1,                             !- Name
  ,                                       !- Building Sector Type
  ,                                       !- North Axis {deg}
  ,                                       !- Nominal Floor to Floor Height {m}
  ,                                       !- Space Type Name
  ,                                       !- Default Construction Set Name
  ;                                       !- Default Schedule Set Name

OS:Facility,
  {51d75bed-ba1c-47e5-834d-2492404176ae}; !- Handle

OS:SimulationControl,
  {9fde737f-051f-42ff-bfb6-10b38ed59f20}; !- Handle

OS:Sizing:Parameters,
  {468ca382-fb18-4245-b35d-52deb60ba154}, !- Handle
  1.25,                                   !- Heating Sizing Factor
  1.15;                                   !- Cooling Sizing Factor

OS:Timestep,
  {1721a8cb-5ba5-49f9-9e85-2400264570ba}, !- Handle
  6;                                      !- Number of Timesteps per Hour

OS:ShadowCalculation,
  {1ba91df7-5c9c-45f5-bb5d-d627a78c9b9d}, !- Handle
  PolygonClipping,                        !- Shading Calculation Method
  ,                                       !- Shading Calculation Update Frequency Method
  20,                                     !- Shading Calculation Update Frequency
  15000,                                  !- Maximum Figures in Shadow Overlap Calculations
  ,                                       !- Polygon Clipping Algorithm
  512,                                    !- Pixel Counting Resolution
  ,                                       !- Sky Diffuse Modeling Algorithm
  No,                                     !- Output External Shading Calculation Results
  No,                                     !- Disable Self-Shading Within Shading Zone Groups
  No;                                     !- Disable Self-Shading From Shading Zone Groups to Other Zones

OS:HeatBalanceAlgorithm,
  {0aafa5bf-42d2-4b00-8afa-316d039a7470}, !- Handle
  ConductionTransferFunction,             !- Algorithm
  200;                                    !- Surface Temperature Upper Limit {C}

OS:RunPeriod,
  {a23296d0-f88c-41ff-ac2c-1fa89a89d157}, !- Handle
  Run Period 1,                           !- Name
  1,                                      !- Begin Month
  1,                                      !- Begin Day of Month
  12,                                     !- End Month
  31,                                     !- End Day of Month
  ,                                       !- Use Weather File Holidays and Special Days
  ,                                       !- Use Weather File Daylight Saving Period
  ,                                       !- Apply Weekend Holiday Rule
  ,                                       !- Use Weather File Rain Indicators
  ,                                       !- Use Weather File Snow Indicators
  ;                                       !- Number of Times Runperiod to be Repeated

OS:LifeCycleCost:Parameters,
  {f7de7daf-7b90-4a98-9a89-3dc04dd178c6}, !- Handle
  ,                                       !- Analysis Type
  ,                                       !- Discounting Convention
  ,                                       !- Inflation Approach
  ,                                       !- Real Discount Rate
  ,                                       !- Nominal Discount Rate
  ,                                       !- Inflation
  ,                                       !- Base Date Month
  ,                                       !- Base Date Year
  ,                                       !- Service Date Month
  ,                                       !- Service Date Year
  ;                                       !- Length of Study Period in Years

OS:Construction,
  {ec638f8f-9ad5-48ae-b609-fcb92aa0228c}, !- Handle
  Shading Construction-StandardOpaque-Space, !- Name
  ,                                       !- Surface Rendering Name
  {a26d9950-584b-4a2e-917a-909fcd9b1561}, !- Layer 1
  {0ec807c7-9a09-4ebc-a4fc-7fa76ed12fd7}; !- Layer 2

OS:StandardsInformation:Construction,
  {6aaf9493-530f-40aa-b36f-95f400170a0e}, !- Handle
  {ec638f8f-9ad5-48ae-b609-fcb92aa0228c}; !- Construction Name

OS:Material,
  {a26d9950-584b-4a2e-917a-909fcd9b1561}, !- Handle
  M11 100mm lightweight concrete,         !- Name
  MediumRough,                            !- Roughness
  0.1016,                                 !- Thickness {m}
  0.53,                                   !- Conductivity {W/m-K}
  1280,                                   !- Density {kg/m3}
  840.000000000002,                       !- Specific Heat {J/kg-K}
  0.9,                                    !- Thermal Absorptance
  0.5,                                    !- Solar Absorptance
  0.5;                                    !- Visible Absorptance

OS:StandardsInformation:Material,
  {59343e72-3382-420c-8802-a782ee5b3530}, !- Handle
  {a26d9950-584b-4a2e-917a-909fcd9b1561}; !- Material Name

OS:Material,
  {0ec807c7-9a09-4ebc-a4fc-7fa76ed12fd7}, !- Handle
  G05 25mm wood,                          !- Name
  MediumSmooth,                           !- Roughness
  0.0254,                                 !- Thickness {m}
  0.15,                                   !- Conductivity {W/m-K}
  608,                                    !- Density {kg/m3}
  1630,                                   !- Specific Heat {J/kg-K}
  0.9,                                    !- Thermal Absorptance
  0.5,                                    !- Solar Absorptance
  0.5;                                    !- Visible Absorptance

OS:StandardsInformation:Material,
  {88dfd2bc-43ba-4974-8389-33cd1a68024f}, !- Handle
  {0ec807c7-9a09-4ebc-a4fc-7fa76ed12fd7}; !- Material Name

OS:DefaultConstructionSet,
  {0821ba13-fbad-49e9-956e-9db7144d064f}, !- Handle
  Default Construction Set 1,             !- Name
  {2e0ee547-3a50-4c95-bcf4-fe80c7c793fe}, !- Default Exterior Surface Constructions Name
  {58afa079-bd8b-47be-b69f-a09b2fdfc018}, !- Default Interior Surface Constructions Name
  {f9bdefda-4738-4056-a510-b1e6b6de134f}, !- Default Ground Contact Surface Constructions Name
  {d20ea24b-5ac4-45fa-a21c-d56695f3cfa3}, !- Default Exterior SubSurface Constructions Name
  {aaf77718-7d4d-485d-bdc0-4b68415488d9}, !- Default Interior SubSurface Constructions Name
  ,                                       !- Interior Partition Construction Name
  {ec638f8f-9ad5-48ae-b609-fcb92aa0228c}, !- Space Shading Construction Name
  ,                                       !- Building Shading Construction Name
  ,                                       !- Site Shading Construction Name
  ;                                       !- Adiabatic Surface Construction Name

OS:DefaultSurfaceConstructions,
  {2e0ee547-3a50-4c95-bcf4-fe80c7c793fe}, !- Handle
  Default Surface Constructions 1,        !- Name
  ,                                       !- Floor Construction Name
  ,                                       !- Wall Construction Name
  ;                                       !- Roof Ceiling Construction Name

OS:DefaultSurfaceConstructions,
  {58afa079-bd8b-47be-b69f-a09b2fdfc018}, !- Handle
  Default Surface Constructions 2,        !- Name
  ,                                       !- Floor Construction Name
  ,                                       !- Wall Construction Name
  ;                                       !- Roof Ceiling Construction Name

OS:DefaultSurfaceConstructions,
  {f9bdefda-4738-4056-a510-b1e6b6de134f}, !- Handle
  Default Surface Constructions 3,        !- Name
  ,                                       !- Floor Construction Name
  ,                                       !- Wall Construction Name
  ;                                       !- Roof Ceiling Construction Name

OS:DefaultSubSurfaceConstructions,
  {d20ea24b-5ac4-45fa-a21c-d56695f3cfa3}, !- Handle
  Default Sub Surface Constructions 1,    !- Name
  ,                                       !- Fixed Window Construction Name
  ,                                       !- Operable Window Construction Name
  ,                                       !- Door Construction Name
  ,                                       !- Glass Door Construction Name
  ,                                       !- Overhead Door Construction Name
  ,                                       !- Skylight Construction Name
  ,                                       !- Tubular Daylight Dome Construction Name
  ;                                       !- Tubular Daylight Diffuser Construction Name

OS:DefaultSubSurfaceConstructions,
  {aaf77718-7d4d-485d-bdc0-4b68415488d9}, !- Handle
  Default Sub Surface Constructions 2,    !- Name
  ,                                       !- Fixed Window Construction Name
  ,                                       !- Operable Window Construction Name
  ,                                       !- Door Construction Name
  ,                                       !- Glass Door Construction Name
  ,                                       !- Overhead Door Construction Name
  ,                                       !- Skylight Construction Name
  ,                                       !- Tubular Daylight Dome Construction Name
  ;                                       !- Tubular Daylight Diffuser Construction Name

