
OS:Version,
  {031c9513-05c1-42d0-b84c-5646ec482d64}, !- Handle
  3.3.0;                                  !- Version Identifier

OS:Site,
  {9b1369cd-7edd-4568-8c2e-70c9d0dea3cf}, !- Handle
  Site 1,                                 !- Name
  ,                                       !- Latitude {deg}
  ,                                       !- Longitude {deg}
  ,                                       !- Time Zone {hr}
  ,                                       !- Elevation {m}
  ;                                       !- Terrain

OS:YearDescription,
  {e0a5d7ef-6be5-4499-b29b-661e33b8f6f1}; !- Handle

OS:ClimateZones,
  {872bdf8f-4d11-4115-96e8-d115078cdc0c}, !- Handle
  ASHRAE,                                 !- Climate Zone Institution Name 1
  ANSI/ASHRAE Standard 169,               !- Climate Zone Document Name 1
  2006,                                   !- Climate Zone Document Year 1
  ,                                       !- Climate Zone Value 1
  CEC,                                    !- Climate Zone Institution Name 2
  California Climate Zone Descriptions,   !- Climate Zone Document Name 2
  1995,                                   !- Climate Zone Document Year 2
  ;                                       !- Climate Zone Value 2

OS:Building,
  {6454b4bd-0187-40e1-afa5-822e783cea3e}, !- Handle
  Building 1,                             !- Name
  ,                                       !- Building Sector Type
  ,                                       !- North Axis {deg}
  ,                                       !- Nominal Floor to Floor Height {m}
  ,                                       !- Space Type Name
  ,                                       !- Default Construction Set Name
  ;                                       !- Default Schedule Set Name

OS:Facility,
  {d03a7279-5170-41a6-814d-40173b3cea52}; !- Handle

OS:SimulationControl,
  {7dc59d1d-c358-4dfc-bec8-0659b103221a}; !- Handle

OS:Sizing:Parameters,
  {79548a34-50bf-4f8e-b7fc-7f35af1924b3}, !- Handle
  1.25,                                   !- Heating Sizing Factor
  1.15;                                   !- Cooling Sizing Factor

OS:Timestep,
  {f4239058-19ef-41e9-996a-62f6e178da58}, !- Handle
  6;                                      !- Number of Timesteps per Hour

OS:ShadowCalculation,
  {be8ccdbf-9d55-4756-84bb-070e2b9a8b5d}, !- Handle
  PolygonClipping,                        !- Shading Calculation Method
  ,                                       !- Shading Calculation Update Frequency Method
  20,                                     !- Shading Calculation Update Frequency
  15000,                                  !- Maximum Figures in Shadow Overlap Calculations
  ,                                       !- Polygon Clipping Algorithm
  512,                                    !- Pixel Counting Resolution
  ,                                       !- Sky Diffuse Modeling Algorithm
  No,                                     !- Output External Shading Calculation Results
  No,                                     !- Disable Self-Shading Within Shading Zone Groups
  No;                                     !- Disable Self-Shading From Shading Zone Groups to Other Zones

OS:HeatBalanceAlgorithm,
  {0b0df428-b272-47e6-8184-1492ba2f812c}, !- Handle
  ConductionTransferFunction,             !- Algorithm
  200;                                    !- Surface Temperature Upper Limit {C}

OS:RunPeriod,
  {b1fd3902-340d-4472-b7c8-5fc10d76291c}, !- Handle
  Run Period 1,                           !- Name
  1,                                      !- Begin Month
  1,                                      !- Begin Day of Month
  12,                                     !- End Month
  31,                                     !- End Day of Month
  ,                                       !- Use Weather File Holidays and Special Days
  ,                                       !- Use Weather File Daylight Saving Period
  ,                                       !- Apply Weekend Holiday Rule
  ,                                       !- Use Weather File Rain Indicators
  ,                                       !- Use Weather File Snow Indicators
  ;                                       !- Number of Times Runperiod to be Repeated

OS:LifeCycleCost:Parameters,
  {c211b0a8-1a20-4f77-bbeb-8dc4324464b0}, !- Handle
  ,                                       !- Analysis Type
  ,                                       !- Discounting Convention
  ,                                       !- Inflation Approach
  ,                                       !- Real Discount Rate
  ,                                       !- Nominal Discount Rate
  ,                                       !- Inflation
  ,                                       !- Base Date Month
  ,                                       !- Base Date Year
  ,                                       !- Service Date Month
  ,                                       !- Service Date Year
  ;                                       !- Length of Study Period in Years

OS:Construction,
  {c6bdd506-2320-4427-8626-177540db37eb}, !- Handle
  ASHRAE 189.1-2009 ExtRoof IEAD ClimateZone 1, !- Name
  ,                                       !- Surface Rendering Name
  {274ab193-a8c4-4cd8-8607-cdc4c7bec38e}, !- Layer 1
  {7d4e2ba2-9c64-4955-a2fd-5777252ed18a}, !- Layer 2
  {7b5a78f3-8694-4c8e-b2ab-d56be5cd0dbd}; !- Layer 3

OS:Material,
  {274ab193-a8c4-4cd8-8607-cdc4c7bec38e}, !- Handle
  Roof Membrane,                          !- Name
  VeryRough,                              !- Roughness
  0.0095,                                 !- Thickness {m}
  0.16,                                   !- Conductivity {W/m-K}
  1121.29,                                !- Density {kg/m3}
  1460,                                   !- Specific Heat {J/kg-K}
  0.9,                                    !- Thermal Absorptance
  0.7,                                    !- Solar Absorptance
  0.7;                                    !- Visible Absorptance

OS:StandardsInformation:Material,
  {0dec0fb7-854c-422c-aded-cc15f11c7bc2}, !- Handle
  {274ab193-a8c4-4cd8-8607-cdc4c7bec38e}; !- Material Name

OS:Material,
  {7d4e2ba2-9c64-4955-a2fd-5777252ed18a}, !- Handle
  Roof Insulation [18],                   !- Name
  MediumRough,                            !- Roughness
  0.1693,                                 !- Thickness {m}
  0.049,                                  !- Conductivity {W/m-K}
  265,                                    !- Density {kg/m3}
  836.800000000001,                       !- Specific Heat {J/kg-K}
  0.9,                                    !- Thermal Absorptance
  0.7,                                    !- Solar Absorptance
  0.7;                                    !- Visible Absorptance

OS:StandardsInformation:Material,
  {18599682-9ea1-4243-88d2-6fdc04033875}, !- Handle
  {7d4e2ba2-9c64-4955-a2fd-5777252ed18a}; !- Material Name

OS:Material,
  {7b5a78f3-8694-4c8e-b2ab-d56be5cd0dbd}, !- Handle
  Metal Decking,                          !- Name
  MediumSmooth,                           !- Roughness
  0.0015,                                 !- Thickness {m}
  45.006,                                 !- Conductivity {W/m-K}
  7680,                                   !- Density {kg/m3}
  418.4,                                  !- Specific Heat {J/kg-K}
  0.9,                                    !- Thermal Absorptance
  0.6,                                    !- Solar Absorptance
  0.6;                                    !- Visible Absorptance

OS:StandardsInformation:Material,
  {7052a85e-5a25-40a5-a827-0ab5f7f94891}, !- Handle
  {7b5a78f3-8694-4c8e-b2ab-d56be5cd0dbd}; !- Material Name

OS:StandardsInformation:Construction,
  {fb032a57-83e4-41ba-9842-fe44d1b51c43}, !- Handle
  {c6bdd506-2320-4427-8626-177540db37eb}, !- Construction Name
  Skylight,                               !- Intended Surface Type
  IEAD,                                   !- Standards Construction Type
  ,                                       !- Perturbable Layer
  ,                                       !- Perturbable Layer Type
  ,                                       !- Other Perturbable Layer Type
  ASHRAE 189.1-2009;                      !- Construction Standard

OS:DefaultConstructionSet,
  {27d52057-da13-443d-9fa6-a51dae6ba324}, !- Handle
  189.1-2009 - CZ1 - Office,              !- Name
  {1374da30-aa64-4409-8028-99696cc8469f}, !- Default Exterior Surface Constructions Name
  {83bf8b79-d574-491c-868f-67359b4a0806}, !- Default Interior Surface Constructions Name
  {baf6fb2d-d06a-4a21-bdbb-d0ed2328711a}, !- Default Ground Contact Surface Constructions Name
  {24b74daa-dd2e-4f77-942d-928aeb3d0cca}, !- Default Exterior SubSurface Constructions Name
  {2bfe386a-0be2-4b1d-8839-03ed93cb3240}, !- Default Interior SubSurface Constructions Name
  {6d7cbcc7-cc06-45c4-a7f2-c24c9cfdfd1d}, !- Interior Partition Construction Name
  ,                                       !- Space Shading Construction Name
  ,                                       !- Building Shading Construction Name
  ,                                       !- Site Shading Construction Name
  ;                                       !- Adiabatic Surface Construction Name

OS:DefaultSurfaceConstructions,
  {1374da30-aa64-4409-8028-99696cc8469f}, !- Handle
  Default Surface Constructions 1,        !- Name
  {fd8bf7d2-c8e4-41b7-a1ea-6296999db6b6}, !- Floor Construction Name
  {911ec438-7c8c-4c85-98af-85436b5d972d}, !- Wall Construction Name
  {c6bdd506-2320-4427-8626-177540db37eb}; !- Roof Ceiling Construction Name

OS:DefaultSurfaceConstructions,
  {83bf8b79-d574-491c-868f-67359b4a0806}, !- Handle
  Default Surface Constructions 2,        !- Name
  {527734f9-b67f-4b47-823a-b70a7cd60e9c}, !- Floor Construction Name
  {f0746c63-c4e2-4f76-8576-13075d72ba80}, !- Wall Construction Name
  {f4549ddf-fc14-4feb-a405-38aaab5cf3ea}; !- Roof Ceiling Construction Name

OS:DefaultSurfaceConstructions,
  {baf6fb2d-d06a-4a21-bdbb-d0ed2328711a}, !- Handle
  Default Surface Constructions 3,        !- Name
  {fd8bf7d2-c8e4-41b7-a1ea-6296999db6b6}, !- Floor Construction Name
  {fd8bf7d2-c8e4-41b7-a1ea-6296999db6b6}, !- Wall Construction Name
  {fd8bf7d2-c8e4-41b7-a1ea-6296999db6b6}; !- Roof Ceiling Construction Name

OS:DefaultSubSurfaceConstructions,
  {24b74daa-dd2e-4f77-942d-928aeb3d0cca}, !- Handle
  Default Sub Surface Constructions 1,    !- Name
  {5729f76c-870c-4c09-9c60-aca1ccf0df40}, !- Fixed Window Construction Name
  {5729f76c-870c-4c09-9c60-aca1ccf0df40}, !- Operable Window Construction Name
  {31a6aeab-5ac0-45f4-9ca8-04f8b7fd2ac0}, !- Door Construction Name
  {18e3429e-b879-4a7c-b18c-44d101322aa7}, !- Glass Door Construction Name
  {98c8e4d0-6d18-4ecc-be9b-529cefb96d1c}, !- Overhead Door Construction Name
  {050090bd-75e2-4478-9cd0-b80b4a38fb3d}, !- Skylight Construction Name
  {584cd529-c384-4d74-b662-423df232bc03}, !- Tubular Daylight Dome Construction Name
  {584cd529-c384-4d74-b662-423df232bc03}; !- Tubular Daylight Diffuser Construction Name

OS:DefaultSubSurfaceConstructions,
  {2bfe386a-0be2-4b1d-8839-03ed93cb3240}, !- Handle
  Default Sub Surface Constructions 2,    !- Name
  {584cd529-c384-4d74-b662-423df232bc03}, !- Fixed Window Construction Name
  {584cd529-c384-4d74-b662-423df232bc03}, !- Operable Window Construction Name
  {4cd743bb-11fd-49b1-8cfa-326b5ba7cdeb}, !- Door Construction Name
  ,                                       !- Glass Door Construction Name
  ,                                       !- Overhead Door Construction Name
  ,                                       !- Skylight Construction Name
  ,                                       !- Tubular Daylight Dome Construction Name
  ;                                       !- Tubular Daylight Diffuser Construction Name

OS:Construction,
  {6d7cbcc7-cc06-45c4-a7f2-c24c9cfdfd1d}, !- Handle
  Interior Partition,                     !- Name
  ,                                       !- Surface Rendering Name
  {a00ac388-527b-414a-9a40-cbb882677405}; !- Layer 1

OS:StandardsInformation:Construction,
  {7aa59204-b16d-4d99-989a-e51fb68062dc}, !- Handle
  {6d7cbcc7-cc06-45c4-a7f2-c24c9cfdfd1d}, !- Construction Name
  InteriorPartition,                      !- Intended Surface Type
  ,                                       !- Standards Construction Type
  ,                                       !- Perturbable Layer
  ,                                       !- Perturbable Layer Type
  ,                                       !- Other Perturbable Layer Type
  ;                                       !- Construction Standard

OS:Construction,
  {fd8bf7d2-c8e4-41b7-a1ea-6296999db6b6}, !- Handle
  ExtSlabCarpet 4in ClimateZone 1-8,      !- Name
  ,                                       !- Surface Rendering Name
  {180eb495-4498-4a76-ac77-f4d3622b1bf7}, !- Layer 1
  {f031ceaf-b286-4386-866e-0f87ade117c6}; !- Layer 2

OS:StandardsInformation:Construction,
  {1bec0ade-7ef7-422d-a151-fcc48f2a2842}, !- Handle
  {fd8bf7d2-c8e4-41b7-a1ea-6296999db6b6}, !- Construction Name
  ExteriorFloor,                          !- Intended Surface Type
  ,                                       !- Standards Construction Type
  ,                                       !- Perturbable Layer
  ,                                       !- Perturbable Layer Type
  ,                                       !- Other Perturbable Layer Type
  ;                                       !- Construction Standard

OS:Construction,
  {911ec438-7c8c-4c85-98af-85436b5d972d}, !- Handle
  ASHRAE 189.1-2009 ExtWall Mass ClimateZone 1, !- Name
  ,                                       !- Surface Rendering Name
  {522e89b3-fee7-40bd-8890-d4ac990efa40}, !- Layer 1
  {010d6819-23b9-4251-9103-3372d32a15d8}, !- Layer 2
  {8deb666b-b4c5-4026-9283-28aad7ed2d63}, !- Layer 3
  {8964c378-2d39-46a4-8ed0-3c10c0f84cd5}; !- Layer 4

OS:StandardsInformation:Construction,
  {58525628-5ac8-4dbf-b894-754cf95cf167}, !- Handle
  {911ec438-7c8c-4c85-98af-85436b5d972d}, !- Construction Name
  ExteriorWall,                           !- Intended Surface Type
  Mass,                                   !- Standards Construction Type
  ,                                       !- Perturbable Layer
  ,                                       !- Perturbable Layer Type
  ,                                       !- Other Perturbable Layer Type
  ASHRAE 189.1-2009;                      !- Construction Standard

OS:Construction,
  {527734f9-b67f-4b47-823a-b70a7cd60e9c}, !- Handle
  Interior Floor,                         !- Name
  ,                                       !- Surface Rendering Name
  {066700ce-d9a2-491f-a936-2743bd461907}, !- Layer 1
  {7709bb1a-d61d-4c4d-b8d7-94df49e5010e}, !- Layer 2
  {debaa442-6e8e-4007-a2cf-eb61971b241f}; !- Layer 3

OS:StandardsInformation:Construction,
  {01234c5e-50fe-422c-b4a2-a3ec128ccb48}, !- Handle
  {527734f9-b67f-4b47-823a-b70a7cd60e9c}, !- Construction Name
  InteriorFloor,                          !- Intended Surface Type
  ,                                       !- Standards Construction Type
  ,                                       !- Perturbable Layer
  ,                                       !- Perturbable Layer Type
  ,                                       !- Other Perturbable Layer Type
  ;                                       !- Construction Standard

OS:Construction,
  {f0746c63-c4e2-4f76-8576-13075d72ba80}, !- Handle
  Interior Wall,                          !- Name
  ,                                       !- Surface Rendering Name
  {5c8d101e-059c-48e0-868e-77abb9dfd3b2}, !- Layer 1
  {b917a472-c33f-465f-9021-38b563c73691}, !- Layer 2
  {5c8d101e-059c-48e0-868e-77abb9dfd3b2}; !- Layer 3

OS:StandardsInformation:Construction,
  {ce3a344b-241c-4bfc-8829-38bc7e3a4c94}, !- Handle
  {f0746c63-c4e2-4f76-8576-13075d72ba80}, !- Construction Name
  InteriorWall,                           !- Intended Surface Type
  ,                                       !- Standards Construction Type
  ,                                       !- Perturbable Layer
  ,                                       !- Perturbable Layer Type
  ,                                       !- Other Perturbable Layer Type
  ;                                       !- Construction Standard

OS:Construction,
  {f4549ddf-fc14-4feb-a405-38aaab5cf3ea}, !- Handle
  Interior Ceiling,                       !- Name
  ,                                       !- Surface Rendering Name
  {debaa442-6e8e-4007-a2cf-eb61971b241f}, !- Layer 1
  {7709bb1a-d61d-4c4d-b8d7-94df49e5010e}, !- Layer 2
  {066700ce-d9a2-491f-a936-2743bd461907}; !- Layer 3

OS:StandardsInformation:Construction,
  {fd506f08-6503-4e6b-a3fe-c744ab2391b3}, !- Handle
  {f4549ddf-fc14-4feb-a405-38aaab5cf3ea}, !- Construction Name
  InteriorCeiling,                        !- Intended Surface Type
  ,                                       !- Standards Construction Type
  ,                                       !- Perturbable Layer
  ,                                       !- Perturbable Layer Type
  ,                                       !- Other Perturbable Layer Type
  ;                                       !- Construction Standard

OS:Construction,
  {5729f76c-870c-4c09-9c60-aca1ccf0df40}, !- Handle
  ASHRAE 189.1-2009 ExtWindow ClimateZone 1, !- Name
  ,                                       !- Surface Rendering Name
  {98bdded3-6271-4861-a435-23137967163e}; !- Layer 1

OS:StandardsInformation:Construction,
  {b4f70f75-7b8f-4b59-82c6-087450d92361}, !- Handle
  {5729f76c-870c-4c09-9c60-aca1ccf0df40}, !- Construction Name
  ExteriorWindow,                         !- Intended Surface Type
  ,                                       !- Standards Construction Type
  ,                                       !- Perturbable Layer
  ,                                       !- Perturbable Layer Type
  ,                                       !- Other Perturbable Layer Type
  ASHRAE 189.1-2009;                      !- Construction Standard

OS:Construction,
  {31a6aeab-5ac0-45f4-9ca8-04f8b7fd2ac0}, !- Handle
  Exterior Door,                          !- Name
  ,                                       !- Surface Rendering Name
  {ee9fe69e-8e6a-4560-bab4-5f48ef507450}, !- Layer 1
  {c159b632-48e7-4deb-8a80-32c8d3cb5e1e}; !- Layer 2

OS:StandardsInformation:Construction,
  {5439d8f9-0128-435e-b2a4-f775e483de3f}, !- Handle
  {31a6aeab-5ac0-45f4-9ca8-04f8b7fd2ac0}, !- Construction Name
  ExteriorDoor,                           !- Intended Surface Type
  ,                                       !- Standards Construction Type
  ,                                       !- Perturbable Layer
  ,                                       !- Perturbable Layer Type
  ,                                       !- Other Perturbable Layer Type
  ;                                       !- Construction Standard

OS:Construction,
  {584cd529-c384-4d74-b662-423df232bc03}, !- Handle
  Interior Window,                        !- Name
  ,                                       !- Surface Rendering Name
  {b1884f00-6bba-45a3-ad06-911b600300b1}; !- Layer 1

OS:StandardsInformation:Construction,
  {dfa316ec-f664-4d0d-8b9c-16f350d2ccd6}, !- Handle
  {584cd529-c384-4d74-b662-423df232bc03}, !- Construction Name
  InteriorWindow,                         !- Intended Surface Type
  ,                                       !- Standards Construction Type
  ,                                       !- Perturbable Layer
  ,                                       !- Perturbable Layer Type
  ,                                       !- Other Perturbable Layer Type
  ;                                       !- Construction Standard

OS:Construction,
  {4cd743bb-11fd-49b1-8cfa-326b5ba7cdeb}, !- Handle
  Interior Door,                          !- Name
  ,                                       !- Surface Rendering Name
  {a00ac388-527b-414a-9a40-cbb882677405}; !- Layer 1

OS:StandardsInformation:Construction,
  {6b79d7c2-21d5-4234-9076-b4d5dc0ee268}, !- Handle
  {4cd743bb-11fd-49b1-8cfa-326b5ba7cdeb}, !- Construction Name
  InteriorDoor,                           !- Intended Surface Type
  ,                                       !- Standards Construction Type
  ,                                       !- Perturbable Layer
  ,                                       !- Perturbable Layer Type
  ,                                       !- Other Perturbable Layer Type
  ;                                       !- Construction Standard

OS:Material,
  {a00ac388-527b-414a-9a40-cbb882677405}, !- Handle
  G05 25mm wood,                          !- Name
  MediumSmooth,                           !- Roughness
  0.0254,                                 !- Thickness {m}
  0.15,                                   !- Conductivity {W/m-K}
  608,                                    !- Density {kg/m3}
  1630,                                   !- Specific Heat {J/kg-K}
  0.9,                                    !- Thermal Absorptance
  0.5,                                    !- Solar Absorptance
  0.5;                                    !- Visible Absorptance

OS:StandardsInformation:Material,
  {62c51d7e-90e6-4c47-9d6e-0ac084b68162}, !- Handle
  {a00ac388-527b-414a-9a40-cbb882677405}; !- Material Name

OS:Material,
  {180eb495-4498-4a76-ac77-f4d3622b1bf7}, !- Handle
  MAT-CC05 4 HW CONCRETE,                 !- Name
  Rough,                                  !- Roughness
  0.1016,                                 !- Thickness {m}
  1.311,                                  !- Conductivity {W/m-K}
  2240,                                   !- Density {kg/m3}
  836.800000000001,                       !- Specific Heat {J/kg-K}
  0.9,                                    !- Thermal Absorptance
  0.85,                                   !- Solar Absorptance
  0.85;                                   !- Visible Absorptance

OS:StandardsInformation:Material,
  {91bdc454-1e40-4792-b18c-574eccbb94b9}, !- Handle
  {180eb495-4498-4a76-ac77-f4d3622b1bf7}; !- Material Name

OS:Material:NoMass,
  {f031ceaf-b286-4386-866e-0f87ade117c6}, !- Handle
  CP02 CARPET PAD,                        !- Name
  Smooth,                                 !- Roughness
  0.1,                                    !- Thermal Resistance {m2-K/W}
  0.9,                                    !- Thermal Absorptance
  0.8,                                    !- Solar Absorptance
  0.8;                                    !- Visible Absorptance

OS:StandardsInformation:Material,
  {897c11ab-19df-4663-b121-9affed04c1fa}, !- Handle
  {f031ceaf-b286-4386-866e-0f87ade117c6}; !- Material Name

OS:Material,
  {522e89b3-fee7-40bd-8890-d4ac990efa40}, !- Handle
  1IN Stucco,                             !- Name
  Smooth,                                 !- Roughness
  0.0253,                                 !- Thickness {m}
  0.691799999999999,                      !- Conductivity {W/m-K}
  1858,                                   !- Density {kg/m3}
  836.999999999999,                       !- Specific Heat {J/kg-K}
  0.9,                                    !- Thermal Absorptance
  0.92,                                   !- Solar Absorptance
  0.92;                                   !- Visible Absorptance

OS:StandardsInformation:Material,
  {a50d0c8f-04a5-4613-97da-c2a9c0839252}, !- Handle
  {522e89b3-fee7-40bd-8890-d4ac990efa40}; !- Material Name

OS:Material,
  {010d6819-23b9-4251-9103-3372d32a15d8}, !- Handle
  8IN Concrete HW,                        !- Name
  MediumRough,                            !- Roughness
  0.2033,                                 !- Thickness {m}
  1.72959999999999,                       !- Conductivity {W/m-K}
  2242.99999999999,                       !- Density {kg/m3}
  836.999999999999,                       !- Specific Heat {J/kg-K}
  0.9,                                    !- Thermal Absorptance
  0.65,                                   !- Solar Absorptance
  0.65;                                   !- Visible Absorptance

OS:StandardsInformation:Material,
  {96f94d67-f379-457c-879f-e354b57f7699}, !- Handle
  {010d6819-23b9-4251-9103-3372d32a15d8}; !- Material Name

OS:Material,
  {8deb666b-b4c5-4026-9283-28aad7ed2d63}, !- Handle
  Wall Insulation [31],                   !- Name
  MediumRough,                            !- Roughness
  0.0337000000000001,                     !- Thickness {m}
  0.0432,                                 !- Conductivity {W/m-K}
  91,                                     !- Density {kg/m3}
  836.999999999999,                       !- Specific Heat {J/kg-K}
  0.9,                                    !- Thermal Absorptance
  0.5,                                    !- Solar Absorptance
  0.5;                                    !- Visible Absorptance

OS:StandardsInformation:Material,
  {082c0a8a-9f1b-4813-8830-d53f7b67c307}, !- Handle
  {8deb666b-b4c5-4026-9283-28aad7ed2d63}; !- Material Name

OS:Material,
  {8964c378-2d39-46a4-8ed0-3c10c0f84cd5}, !- Handle
  1/2IN Gypsum,                           !- Name
  Smooth,                                 !- Roughness
  0.0127,                                 !- Thickness {m}
  0.16,                                   !- Conductivity {W/m-K}
  784.9,                                  !- Density {kg/m3}
  830.000000000001,                       !- Specific Heat {J/kg-K}
  0.9,                                    !- Thermal Absorptance
  0.4,                                    !- Solar Absorptance
  0.4;                                    !- Visible Absorptance

OS:StandardsInformation:Material,
  {e9b1c997-8721-476d-800a-000336336add}, !- Handle
  {8964c378-2d39-46a4-8ed0-3c10c0f84cd5}; !- Material Name

OS:Material,
  {066700ce-d9a2-491f-a936-2743bd461907}, !- Handle
  F16 Acoustic tile,                      !- Name
  MediumSmooth,                           !- Roughness
  0.0191,                                 !- Thickness {m}
  0.06,                                   !- Conductivity {W/m-K}
  368,                                    !- Density {kg/m3}
  590.000000000002,                       !- Specific Heat {J/kg-K}
  0.9,                                    !- Thermal Absorptance
  0.3,                                    !- Solar Absorptance
  0.3;                                    !- Visible Absorptance

OS:StandardsInformation:Material,
  {bb64f6e3-d072-4342-b5e9-71f5cbed5990}, !- Handle
  {066700ce-d9a2-491f-a936-2743bd461907}; !- Material Name

OS:Material:AirGap,
  {7709bb1a-d61d-4c4d-b8d7-94df49e5010e}, !- Handle
  F05 Ceiling air space resistance,       !- Name
  0.18;                                   !- Thermal Resistance {m2-K/W}

OS:StandardsInformation:Material,
  {0e2c08af-af05-4b96-a998-72dadb56b94a}, !- Handle
  {7709bb1a-d61d-4c4d-b8d7-94df49e5010e}; !- Material Name

OS:Material,
  {debaa442-6e8e-4007-a2cf-eb61971b241f}, !- Handle
  M11 100mm lightweight concrete,         !- Name
  MediumRough,                            !- Roughness
  0.1016,                                 !- Thickness {m}
  0.53,                                   !- Conductivity {W/m-K}
  1280,                                   !- Density {kg/m3}
  840.000000000002,                       !- Specific Heat {J/kg-K}
  0.9,                                    !- Thermal Absorptance
  0.5,                                    !- Solar Absorptance
  0.5;                                    !- Visible Absorptance

OS:StandardsInformation:Material,
  {7ec37e6b-0cdf-45d0-ab43-2f1e32a5164a}, !- Handle
  {debaa442-6e8e-4007-a2cf-eb61971b241f}; !- Material Name

OS:Material,
  {5c8d101e-059c-48e0-868e-77abb9dfd3b2}, !- Handle
  G01a 19mm gypsum board,                 !- Name
  MediumSmooth,                           !- Roughness
  0.019,                                  !- Thickness {m}
  0.16,                                   !- Conductivity {W/m-K}
  800,                                    !- Density {kg/m3}
  1090,                                   !- Specific Heat {J/kg-K}
  0.9,                                    !- Thermal Absorptance
  0.4,                                    !- Solar Absorptance
  0.4;                                    !- Visible Absorptance

OS:StandardsInformation:Material,
  {4c539ae8-9a59-4ecc-a7d5-dfa9fb65d6fb}, !- Handle
  {5c8d101e-059c-48e0-868e-77abb9dfd3b2}; !- Material Name

OS:Material:AirGap,
  {b917a472-c33f-465f-9021-38b563c73691}, !- Handle
  F04 Wall air space resistance,          !- Name
  0.15;                                   !- Thermal Resistance {m2-K/W}

OS:StandardsInformation:Material,
  {efbfcd9f-8cb2-4092-b3dd-f606b026d5a9}, !- Handle
  {b917a472-c33f-465f-9021-38b563c73691}; !- Material Name

OS:WindowMaterial:Glazing,
  {98bdded3-6271-4861-a435-23137967163e}, !- Handle
  Theoretical Glass [167],                !- Name
  SpectralAverage,                        !- Optical Data Type
  ,                                       !- Window Glass Spectral Data Set Name
  0.00299999999999999,                    !- Thickness {m}
  0.2374,                                 !- Solar Transmittance at Normal Incidence
  0.7126,                                 !- Front Side Solar Reflectance at Normal Incidence
  0,                                      !- Back Side Solar Reflectance at Normal Incidence
  0.2512,                                 !- Visible Transmittance at Normal Incidence
  0.6988,                                 !- Front Side Visible Reflectance at Normal Incidence
  0,                                      !- Back Side Visible Reflectance at Normal Incidence
  0,                                      !- Infrared Transmittance at Normal Incidence
  0.985,                                  !- Front Side Infrared Hemispherical Emissivity
  0.985,                                  !- Back Side Infrared Hemispherical Emissivity
  2.1073,                                 !- Conductivity {W/m-K}
  1,                                      !- Dirt Correction Factor for Solar and Visible Transmittance
  No;                                     !- Solar Diffusing
