
OS:Version,
  {90e33009-4373-4abc-913d-12c70a7d4513}, !- Handle
  3.2.0,                                  !- Version Identifier
  rc1;                                    !- Prerelease Identifier

OS:Building,
  {0cddede0-b205-42a1-aa30-a99347b22cf0}, !- Handle
  Building 1,                             !- Name
  ,                                       !- Building Sector Type
  ,                                       !- North Axis {deg}
  ,                                       !- Nominal Floor to Floor Height {m}
  ,                                       !- Space Type Name
  {a53d7c23-6b93-42c2-8b61-524d8926c811}, !- Default Construction Set Name
  ,                                       !- Default Schedule Set Name
  ,                                       !- Standards Number of Stories
  ,                                       !- Standards Number of Above Ground Stories
  ,                                       !- Standards Template
  MediumOffice;                           !- Standards Building Type

OS:ScheduleTypeLimits,
  {d551ad9d-d1f7-4ea4-8e6f-4267ec3c2d7a}, !- Handle
  Activity Level,                         !- Name
  0,                                      !- Lower Limit Value
  ,                                       !- Upper Limit Value
  Continuous,                             !- Numeric Type
  ActivityLevel;                          !- Unit Type

OS:ScheduleTypeLimits,
  {1fa0379b-4551-488f-b4bd-dcf36f376954}, !- Handle
  Temperature,                            !- Name
  -273.15,                                !- Lower Limit Value
  ,                                       !- Upper Limit Value
  Continuous,                             !- Numeric Type
  Temperature;                            !- Unit Type

OS:ScheduleTypeLimits,
  {412c1333-fbe5-4739-bf5c-b01881f13e8f}, !- Handle
  Fractional,                             !- Name
  0,                                      !- Lower Limit Value
  1,                                      !- Upper Limit Value
  Continuous,                             !- Numeric Type
  Dimensionless;                          !- Unit Type

OS:YearDescription,
  {1c796b83-8399-4a55-8793-b68caddd1d8a}, !- Handle
  ,                                       !- Calendar Year
  ,                                       !- Day of Week for Start Day
  No;                                     !- Is Leap Year

OS:Schedule:Ruleset,
  {039e42c5-66ef-46f4-92c1-03c5c2ecbc29}, !- Handle
  Generic Office Infiltration,            !- Name
  {412c1333-fbe5-4739-bf5c-b01881f13e8f}, !- Schedule Type Limits Name
  {bccc7927-ba70-4ddd-9bb2-14f5647414b2}, !- Default Day Schedule Name
  {a9a9c0bd-ae7b-478a-8161-a056ff79df59}, !- Summer Design Day Schedule Name
  {d3871ccc-bd1f-4cb8-980e-3bcf98b123c4}; !- Winter Design Day Schedule Name

OS:Schedule:Day,
  {bccc7927-ba70-4ddd-9bb2-14f5647414b2}, !- Handle
  OfficeMedium INFIL_SCH_PNNL_Default,    !- Name
  {412c1333-fbe5-4739-bf5c-b01881f13e8f}, !- Schedule Type Limits Name
  ,                                       !- Interpolate to Timestep
  24,                                     !- Hour 1
  0,                                      !- Minute 1
  1;                                      !- Value Until Time 1

OS:Schedule:Day,
  {89bdcf51-438f-4072-bcc9-b493551b2d2b}, !- Handle
  OfficeMedium INFIL_SCH_PNNL_Wkdy_SmrDsn, !- Name
  {412c1333-fbe5-4739-bf5c-b01881f13e8f}, !- Schedule Type Limits Name
  ,                                       !- Interpolate to Timestep
  6,                                      !- Hour 1
  0,                                      !- Minute 1
  1,                                      !- Value Until Time 1
  22,                                     !- Hour 2
  0,                                      !- Minute 2
  0.25,                                   !- Value Until Time 2
  24,                                     !- Hour 3
  0,                                      !- Minute 3
  1;                                      !- Value Until Time 3

OS:Schedule:Day,
  {cc6b3873-4ffb-4122-9511-8bdf1a1dd47f}, !- Handle
  OfficeMedium INFIL_SCH_PNNL_Sat_WntrDsn, !- Name
  {412c1333-fbe5-4739-bf5c-b01881f13e8f}, !- Schedule Type Limits Name
  ,                                       !- Interpolate to Timestep
  6,                                      !- Hour 1
  0,                                      !- Minute 1
  1,                                      !- Value Until Time 1
  18,                                     !- Hour 2
  0,                                      !- Minute 2
  0.25,                                   !- Value Until Time 2
  24,                                     !- Hour 3
  0,                                      !- Minute 3
  1;                                      !- Value Until Time 3

OS:Schedule:Day,
  {ba9e65e3-b812-4bb2-99d9-9406c9ba716e}, !- Handle
  OfficeMedium INFIL_SCH_PNNL_Wkdy,       !- Name
  {412c1333-fbe5-4739-bf5c-b01881f13e8f}, !- Schedule Type Limits Name
  ,                                       !- Interpolate to Timestep
  6,                                      !- Hour 1
  0,                                      !- Minute 1
  1,                                      !- Value Until Time 1
  22,                                     !- Hour 2
  0,                                      !- Minute 2
  0.25,                                   !- Value Until Time 2
  24,                                     !- Hour 3
  0,                                      !- Minute 3
  1;                                      !- Value Until Time 3

OS:Schedule:Day,
  {70f36830-9db6-4f96-a7bd-dc5f26addc4a}, !- Handle
  OfficeMedium INFIL_SCH_PNNL_Sat,        !- Name
  {412c1333-fbe5-4739-bf5c-b01881f13e8f}, !- Schedule Type Limits Name
  ,                                       !- Interpolate to Timestep
  6,                                      !- Hour 1
  0,                                      !- Minute 1
  1,                                      !- Value Until Time 1
  18,                                     !- Hour 2
  0,                                      !- Minute 2
  0.25,                                   !- Value Until Time 2
  24,                                     !- Hour 3
  0,                                      !- Minute 3
  1;                                      !- Value Until Time 3

OS:Schedule:Day,
  {a9a9c0bd-ae7b-478a-8161-a056ff79df59}, !- Handle
  OfficeMedium INFIL_SCH_PNNL_Wkdy_SmrDsn 1, !- Name
  {412c1333-fbe5-4739-bf5c-b01881f13e8f}, !- Schedule Type Limits Name
  ,                                       !- Interpolate to Timestep
  6,                                      !- Hour 1
  0,                                      !- Minute 1
  1,                                      !- Value Until Time 1
  22,                                     !- Hour 2
  0,                                      !- Minute 2
  0.25,                                   !- Value Until Time 2
  24,                                     !- Hour 3
  0,                                      !- Minute 3
  1;                                      !- Value Until Time 3

OS:Schedule:Day,
  {d3871ccc-bd1f-4cb8-980e-3bcf98b123c4}, !- Handle
  OfficeMedium INFIL_SCH_PNNL_Sat_WntrDsn 1, !- Name
  {412c1333-fbe5-4739-bf5c-b01881f13e8f}, !- Schedule Type Limits Name
  ,                                       !- Interpolate to Timestep
  6,                                      !- Hour 1
  0,                                      !- Minute 1
  1,                                      !- Value Until Time 1
  18,                                     !- Hour 2
  0,                                      !- Minute 2
  0.25,                                   !- Value Until Time 2
  24,                                     !- Hour 3
  0,                                      !- Minute 3
  1;                                      !- Value Until Time 3

OS:Schedule:Rule,
  {7814b5db-1300-4617-8368-3523082dd88c}, !- Handle
  Schedule Rule 1,                        !- Name
  {039e42c5-66ef-46f4-92c1-03c5c2ecbc29}, !- Schedule Ruleset Name
  0,                                      !- Rule Order
  {a8954981-3c1e-48c2-886b-1982bb583218}, !- Day Schedule Name
  No,                                     !- Apply Sunday
  Yes,                                    !- Apply Monday
  Yes,                                    !- Apply Tuesday
  Yes,                                    !- Apply Wednesday
  Yes,                                    !- Apply Thursday
  Yes,                                    !- Apply Friday
  No,                                     !- Apply Saturday
  DateRange,                              !- Date Specification Type
  1,                                      !- Start Month
  1,                                      !- Start Day
  12,                                     !- End Month
  31;                                     !- End Day

OS:Schedule:Day,
  {a8954981-3c1e-48c2-886b-1982bb583218}, !- Handle
  Schedule Day 1,                         !- Name
  {412c1333-fbe5-4739-bf5c-b01881f13e8f}, !- Schedule Type Limits Name
  ,                                       !- Interpolate to Timestep
  6,                                      !- Hour 1
  0,                                      !- Minute 1
  1,                                      !- Value Until Time 1
  22,                                     !- Hour 2
  0,                                      !- Minute 2
  0.25,                                   !- Value Until Time 2
  24,                                     !- Hour 3
  0,                                      !- Minute 3
  1;                                      !- Value Until Time 3

OS:Schedule:Rule,
  {d488ac11-8e22-46cb-ba60-f14ddae70f90}, !- Handle
  Schedule Rule 2,                        !- Name
  {039e42c5-66ef-46f4-92c1-03c5c2ecbc29}, !- Schedule Ruleset Name
  1,                                      !- Rule Order
  {fb0a9e42-261f-444d-ac81-26bd36eb71bf}, !- Day Schedule Name
  No,                                     !- Apply Sunday
  No,                                     !- Apply Monday
  No,                                     !- Apply Tuesday
  No,                                     !- Apply Wednesday
  No,                                     !- Apply Thursday
  No,                                     !- Apply Friday
  Yes,                                    !- Apply Saturday
  DateRange,                              !- Date Specification Type
  1,                                      !- Start Month
  1,                                      !- Start Day
  12,                                     !- End Month
  31;                                     !- End Day

OS:Schedule:Day,
  {fb0a9e42-261f-444d-ac81-26bd36eb71bf}, !- Handle
  Schedule Day 2,                         !- Name
  {412c1333-fbe5-4739-bf5c-b01881f13e8f}, !- Schedule Type Limits Name
  ,                                       !- Interpolate to Timestep
  6,                                      !- Hour 1
  0,                                      !- Minute 1
  1,                                      !- Value Until Time 1
  18,                                     !- Hour 2
  0,                                      !- Minute 2
  0.25,                                   !- Value Until Time 2
  24,                                     !- Hour 3
  0,                                      !- Minute 3
  1;                                      !- Value Until Time 3

OS:Schedule:FixedInterval,
  {470b53b6-fe41-4c1b-9d55-54083b0c26a4}, !- Handle
  Random Occupancy,                       !- Name
  {412c1333-fbe5-4739-bf5c-b01881f13e8f}, !- Schedule Type Limits Name
  ,                                       !- Translate to Schedule File
  No,                                     !- Interpolate to Timestep
  60,                                     !- Interval Length {minutes}
  ,                                       !- Out Of Range Value
  1,                                      !- Start Month
  1,                                      !- Start Day
  0.6155,                                 !- Value 1
  0.557,                                  !- Value 2
  0.096,                                  !- Value 3
  0.1681,                                 !- Value 4
  0.2926,                                 !- Value 5
  0.792,                                  !- Value 6
  0.7225,                                 !- Value 7
  0.2341,                                 !- Value 8
  0.6716,                                 !- Value 9
  0.342,                                  !- Value 10
  0.4283,                                 !- Value 11
  0.8543,                                 !- Value 12
  0.8952,                                 !- Value 13
  0.5761,                                 !- Value 14
  0.1091,                                 !- Value 15
  0.7481,                                 !- Value 16
  0.0922,                                 !- Value 17
  0.7974,                                 !- Value 18
  0.8117,                                 !- Value 19
  0.7122,                                 !- Value 20
  0.4575,                                 !- Value 21
  0.7133,                                 !- Value 22
  0.506,                                  !- Value 23
  0.2932,                                 !- Value 24
  0.1418,                                 !- Value 25
  0.9847,                                 !- Value 26
  0.1645,                                 !- Value 27
  0.6935,                                 !- Value 28
  0.7023,                                 !- Value 29
  0.0895,                                 !- Value 30
  0.3168,                                 !- Value 31
  0.2929,                                 !- Value 32
  0.2228,                                 !- Value 33
  0.9976,                                 !- Value 34
  0.9173,                                 !- Value 35
  0.375,                                  !- Value 36
  0.4823,                                 !- Value 37
  0.326,                                  !- Value 38
  0.3568,                                 !- Value 39
  0.8536,                                 !- Value 40
  0.2542,                                 !- Value 41
  0.5137,                                 !- Value 42
  0.9405,                                 !- Value 43
  0.8492,                                 !- Value 44
  0.7821,                                 !- Value 45
  0.857,                                  !- Value 46
  0.4617,                                 !- Value 47
  0.9495,                                 !- Value 48
  0.896,                                  !- Value 49
  0.497,                                  !- Value 50
  0.3431,                                 !- Value 51
  0.7374,                                 !- Value 52
  0.0427,                                 !- Value 53
  0.7081,                                 !- Value 54
  0.9605,                                 !- Value 55
  0.9341,                                 !- Value 56
  0.6418,                                 !- Value 57
  0.6979,                                 !- Value 58
  0.5197,                                 !- Value 59
  0.5532,                                 !- Value 60
  0.3048,                                 !- Value 61
  0.3467,                                 !- Value 62
  0.4877,                                 !- Value 63
  0.2853,                                 !- Value 64
  0.1555,                                 !- Value 65
  0.294,                                  !- Value 66
  0.8375,                                 !- Value 67
  0.7411,                                 !- Value 68
  0.8647,                                 !- Value 69
  0.5015,                                 !- Value 70
  0.6908,                                 !- Value 71
  0.122,                                  !- Value 72
  0.4475,                                 !- Value 73
  0.9417,                                 !- Value 74
  0.3651,                                 !- Value 75
  0.0828,                                 !- Value 76
  0.72,                                   !- Value 77
  0.8973,                                 !- Value 78
  0.7922,                                 !- Value 79
  0.6501,                                 !- Value 80
  0.3067,                                 !- Value 81
  0.7928,                                 !- Value 82
  0.6171,                                 !- Value 83
  0.0288,                                 !- Value 84
  0.0378,                                 !- Value 85
  0.5113,                                 !- Value 86
  0.6779,                                 !- Value 87
  0.5543,                                 !- Value 88
  0.8599,                                 !- Value 89
  0.8515,                                 !- Value 90
  0.3961,                                 !- Value 91
  0.399,                                  !- Value 92
  0.4774,                                 !- Value 93
  0.3075,                                 !- Value 94
  0.7475,                                 !- Value 95
  0.2694,                                 !- Value 96
  0.2168,                                 !- Value 97
  0.8781,                                 !- Value 98
  0.83,                                   !- Value 99
  0.5717,                                 !- Value 100
  0.5078,                                 !- Value 101
  0.1716,                                 !- Value 102
  0.2595,                                 !- Value 103
  0.4902,                                 !- Value 104
  0.4014,                                 !- Value 105
  0.6827,                                 !- Value 106
  0.2402,                                 !- Value 107
  0.0407,                                 !- Value 108
  0.9296,                                 !- Value 109
  0.32,                                   !- Value 110
  0.7434,                                 !- Value 111
  0.338,                                  !- Value 112
  0.1368,                                 !- Value 113
  0.2579,                                 !- Value 114
  0.9434,                                 !- Value 115
  0.4299,                                 !- Value 116
  0.2454,                                 !- Value 117
  0.0237,                                 !- Value 118
  0.8338,                                 !- Value 119
  0.1445,                                 !- Value 120
  0.645,                                  !- Value 121
  0.6644,                                 !- Value 122
  0.4129,                                 !- Value 123
  0.0894,                                 !- Value 124
  0.9477,                                 !- Value 125
  0.4049,                                 !- Value 126
  0.9833,                                 !- Value 127
  0.8443,                                 !- Value 128
  0.0828,                                 !- Value 129
  0.6584,                                 !- Value 130
  0.1525,                                 !- Value 131
  0.2848,                                 !- Value 132
  0.772,                                  !- Value 133
  0.0819,                                 !- Value 134
  0.7685,                                 !- Value 135
  0.9476,                                 !- Value 136
  0.4966,                                 !- Value 137
  0.0308,                                 !- Value 138
  0.7008,                                 !- Value 139
  0.6909,                                 !- Value 140
  0.8607,                                 !- Value 141
  0.7219,                                 !- Value 142
  0.0757,                                 !- Value 143
  0.452,                                  !- Value 144
  0.874,                                  !- Value 145
  0.6341,                                 !- Value 146
  0.2983,                                 !- Value 147
  0.9349,                                 !- Value 148
  0.7829,                                 !- Value 149
  0.4799,                                 !- Value 150
  0.9291,                                 !- Value 151
  0.6416,                                 !- Value 152
  0.1632,                                 !- Value 153
  0.691,                                  !- Value 154
  0.3261,                                 !- Value 155
  0.6781,                                 !- Value 156
  0.2985,                                 !- Value 157
  0.2585,                                 !- Value 158
  0.2765,                                 !- Value 159
  0.3719,                                 !- Value 160
  0.1841,                                 !- Value 161
  0.6142,                                 !- Value 162
  0.2173,                                 !- Value 163
  0.8421,                                 !- Value 164
  0.0026,                                 !- Value 165
  0.0678,                                 !- Value 166
  0.135,                                  !- Value 167
  0.3161,                                 !- Value 168
  0.7057,                                 !- Value 169
  0.2076,                                 !- Value 170
  0.9276,                                 !- Value 171
  0.5757,                                 !- Value 172
  0.5655,                                 !- Value 173
  0.6279,                                 !- Value 174
  0.6496,                                 !- Value 175
  0.083,                                  !- Value 176
  0.9378,                                 !- Value 177
  0.8493,                                 !- Value 178
  0.3511,                                 !- Value 179
  0.9399,                                 !- Value 180
  0.7769,                                 !- Value 181
  0.9783,                                 !- Value 182
  0.8455,                                 !- Value 183
  0.7164,                                 !- Value 184
  0.99,                                   !- Value 185
  0.4498,                                 !- Value 186
  0.677,                                  !- Value 187
  0.4677,                                 !- Value 188
  0.4977,                                 !- Value 189
  0.6709,                                 !- Value 190
  0.394,                                  !- Value 191
  0.04,                                   !- Value 192
  0.5479,                                 !- Value 193
  0.5735,                                 !- Value 194
  0.4959,                                 !- Value 195
  0.9224,                                 !- Value 196
  0.3845,                                 !- Value 197
  0.1079,                                 !- Value 198
  0.9461,                                 !- Value 199
  0.7565,                                 !- Value 200
  0.636,                                  !- Value 201
  0.8504,                                 !- Value 202
  0.4943,                                 !- Value 203
  0.8167,                                 !- Value 204
  0.5674,                                 !- Value 205
  0.5193,                                 !- Value 206
  0.7492,                                 !- Value 207
  0.7892,                                 !- Value 208
  0.9431,                                 !- Value 209
  0.402,                                  !- Value 210
  0.01,                                   !- Value 211
  0.3242,                                 !- Value 212
  0.2192,                                 !- Value 213
  0.5453,                                 !- Value 214
  0.6365,                                 !- Value 215
  0.534,                                  !- Value 216
  0.8957,                                 !- Value 217
  0.9737,                                 !- Value 218
  0.1083,                                 !- Value 219
  0.1286,                                 !- Value 220
  0.575,                                  !- Value 221
  0.8236,                                 !- Value 222
  0.472,                                  !- Value 223
  0.7568,                                 !- Value 224
  0.2807,                                 !- Value 225
  0.886,                                  !- Value 226
  0.6892,                                 !- Value 227
  0.2218,                                 !- Value 228
  0.3248,                                 !- Value 229
  0.8349,                                 !- Value 230
  0.422,                                  !- Value 231
  0.4945,                                 !- Value 232
  0.0719,                                 !- Value 233
  0.0967,                                 !- Value 234
  0.6602,                                 !- Value 235
  0.0496,                                 !- Value 236
  0.2634,                                 !- Value 237
  0.8123,                                 !- Value 238
  0.532,                                  !- Value 239
  0.5708,                                 !- Value 240
  0.096,                                  !- Value 241
  0.3168,                                 !- Value 242
  0.3151,                                 !- Value 243
  0.4318,                                 !- Value 244
  0.2756,                                 !- Value 245
  0.2604,                                 !- Value 246
  0.087,                                  !- Value 247
  0.2753,                                 !- Value 248
  0.941,                                  !- Value 249
  0.712,                                  !- Value 250
  0.081,                                  !- Value 251
  0.9098,                                 !- Value 252
  0.7346,                                 !- Value 253
  0.0747,                                 !- Value 254
  0.6832,                                 !- Value 255
  0.3844,                                 !- Value 256
  0.5967,                                 !- Value 257
  0.2722,                                 !- Value 258
  0.26,                                   !- Value 259
  0.3006,                                 !- Value 260
  0.5364,                                 !- Value 261
  0.4484,                                 !- Value 262
  0.7936,                                 !- Value 263
  0.5996,                                 !- Value 264
  0.3775,                                 !- Value 265
  0.0725,                                 !- Value 266
  0.845,                                  !- Value 267
  0.4815,                                 !- Value 268
  0.5395,                                 !- Value 269
  0.0268,                                 !- Value 270
  0.105,                                  !- Value 271
  0.9067,                                 !- Value 272
  0.8871,                                 !- Value 273
  0.4273,                                 !- Value 274
  0.5593,                                 !- Value 275
  0.0894,                                 !- Value 276
  0.5659,                                 !- Value 277
  0.7109,                                 !- Value 278
  0.2582,                                 !- Value 279
  0.726,                                  !- Value 280
  0.8465,                                 !- Value 281
  0.0847,                                 !- Value 282
  0.7403,                                 !- Value 283
  0.9026,                                 !- Value 284
  0.5795,                                 !- Value 285
  0.8771,                                 !- Value 286
  0.8505,                                 !- Value 287
  0.7875,                                 !- Value 288
  0.7132,                                 !- Value 289
  0.5985,                                 !- Value 290
  0.3876,                                 !- Value 291
  0.9436,                                 !- Value 292
  0.1155,                                 !- Value 293
  0.2328,                                 !- Value 294
  0.5098,                                 !- Value 295
  0.8799,                                 !- Value 296
  0.6684,                                 !- Value 297
  0.3128,                                 !- Value 298
  0.5304,                                 !- Value 299
  0.6512,                                 !- Value 300
  0.2755,                                 !- Value 301
  0.9154,                                 !- Value 302
  0.4635,                                 !- Value 303
  0.4007,                                 !- Value 304
  0.3816,                                 !- Value 305
  0.991,                                  !- Value 306
  0.3378,                                 !- Value 307
  0.0994,                                 !- Value 308
  0.9101,                                 !- Value 309
  0.0847,                                 !- Value 310
  0.8272,                                 !- Value 311
  0.6683,                                 !- Value 312
  0.0901,                                 !- Value 313
  0.246,                                  !- Value 314
  0.2705,                                 !- Value 315
  0.9088,                                 !- Value 316
  0.2696,                                 !- Value 317
  0.2241,                                 !- Value 318
  0.5123,                                 !- Value 319
  0.6407,                                 !- Value 320
  0.5204,                                 !- Value 321
  0.9193,                                 !- Value 322
  0.575,                                  !- Value 323
  0.0016,                                 !- Value 324
  0.314,                                  !- Value 325
  0.8221,                                 !- Value 326
  0.7665,                                 !- Value 327
  0.2132,                                 !- Value 328
  0.3149,                                 !- Value 329