
OS:Version,
  {b7889745-8dd6-4e98-86ef-cdb79361341b}, !- Handle
  3.1.0;                                  !- Version Identifier

OS:SimulationControl,
  {c1f25074-dfe8-478a-a3a0-760203ea42a4}, !- Handle
  Yes,                                    !- Do Zone Sizing Calculation
  Yes,                                    !- Do System Sizing Calculation
  ,                                       !- Do Plant Sizing Calculation
  No,                                     !- Run Simulation for Sizing Periods
  Yes;                                    !- Run Simulation for Weather File Run Periods

OS:Timestep,
  {d1017959-97de-4483-9d4c-715eda356034}, !- Handle
  6;                                      !- Number of Timesteps per Hour

OS:RunPeriod,
  {06b9b398-1b7c-490c-9578-1ecc9682b25c}, !- Handle
  Run Period 1,                           !- Name
  1,                                      !- Begin Month
  1,                                      !- Begin Day of Month
  12,                                     !- End Month
  31,                                     !- End Day of Month
  No,                                     !- Use Weather File Holidays and Special Days
  No,                                     !- Use Weather File Daylight Saving Period
  No,                                     !- Apply Weekend Holiday Rule
  Yes,                                    !- Use Weather File Rain Indicators
  Yes,                                    !- Use Weather File Snow Indicators
  1;                                      !- Number of Times Runperiod to be Repeated

OS:SurfaceConvectionAlgorithm:Inside,
  {06302dd7-e123-4552-bb60-499b8a538d3c}, !- Handle
  TARP;                                   !- Algorithm

OS:SurfaceConvectionAlgorithm:Outside,
  {acc6a00b-b293-48ad-82a5-f795e02d0265}, !- Handle
  DOE-2;                                  !- Algorithm

OS:HeatBalanceAlgorithm,
  {d730e506-66e8-4ea3-a4a2-491e9090972a}, !- Handle
  ConductionTransferFunction,             !- Algorithm
  200;                                    !- Surface Temperature Upper Limit {C}

OS:ZoneAirHeatBalanceAlgorithm,
  {ff1f4864-c413-4d9b-ac59-c41564e3520d}, !- Handle
  ThirdOrderBackwardDifference;           !- Algorithm

OS:ConvergenceLimits,
  {4c0c1b16-e336-4e79-b523-850f8262fdd8}, !- Handle
  1;                                      !- Minimum System Timestep {minutes}

OS:ShadowCalculation,
  {b6132662-0d95-43ab-a50a-41d6c9705c6f}, !- Handle
  PolygonClipping,                        !- Shading Calculation Method
  ,                                       !- Shading Calculation Update Frequency Method
  20,                                     !- Shading Calculation Update Frequency
  15000,                                  !- Maximum Figures in Shadow Overlap Calculations
  ,                                       !- Polygon Clipping Algorithm
  512,                                    !- Pixel Counting Resolution
  ,                                       !- Sky Diffuse Modeling Algorithm
  No,                                     !- Output External Shading Calculation Results
  No,                                     !- Disable Self-Shading Within Shading Zone Groups
  No;                                     !- Disable Self-Shading From Shading Zone Groups to Other Zones

OS:Site,
  {bb467b79-3891-48a5-b8a1-ca11264926ca}, !- Handle
  Site 1,                                 !- Name
  41.77,                                  !- Latitude {deg}
  -87.75,                                 !- Longitude {deg}
  -6,                                     !- Time Zone {hr}
  190,                                    !- Elevation {m}
  ;                                       !- Terrain

OS:Site:GroundTemperature:BuildingSurface,
  {a2b0f14e-d53a-4b6a-8645-cc6d46e0a2d6}, !- Handle
  19.527,                                 !- January Ground Temperature {C}
  19.502,                                 !- February Ground Temperature {C}
  19.536,                                 !- March Ground Temperature {C}
  19.598,                                 !- April Ground Temperature {C}
  20.002,                                 !- May Ground Temperature {C}
  21.64,                                  !- June Ground Temperature {C}
  22.225,                                 !- July Ground Temperature {C}
  22.375,                                 !- August Ground Temperature {C}
  21.449,                                 !- September Ground Temperature {C}
  20.121,                                 !- October Ground Temperature {C}
  19.802,                                 !- November Ground Temperature {C}
  19.633;                                 !- December Ground Temperature {C}

OS:Site:GroundTemperature:Deep,
  {c8374548-ff6e-40e8-af0d-8d0011567d47}, !- Handle
  19.527,                                 !- January Deep Ground Temperature {C}
  19.502,                                 !- February Deep Ground Temperature {C}
  19.536,                                 !- March Deep Ground Temperature {C}
  19.598,                                 !- April Deep Ground Temperature {C}
  20.002,                                 !- May Deep Ground Temperature {C}
  21.64,                                  !- June Deep Ground Temperature {C}
  22.225,                                 !- July Deep Ground Temperature {C}
  22.375,                                 !- August Deep Ground Temperature {C}
  21.449,                                 !- September Deep Ground Temperature {C}
  20.121,                                 !- October Deep Ground Temperature {C}
  19.802,                                 !- November Deep Ground Temperature {C}
  19.633;                                 !- December Deep Ground Temperature {C}

OS:Site:WaterMainsTemperature,
  {b3e150c0-8c86-45bd-80ec-421832ef9fb3}, !- Handle
  Correlation,                            !- Calculation Method
  ,                                       !- Temperature Schedule Name
  9.69,                                   !- Annual Average Outdoor Air Temperature {C}
  28.1;                                   !- Maximum Difference In Monthly Average Outdoor Air Temperatures {deltaC}

OS:SizingPeriod:DesignDay,
  {f0244bd4-43fe-4beb-8fe5-3e4419dbf247}, !- Handle
  Sizing Period Design Day 1,             !- Name
  -20.6,                                  !- Maximum Dry-Bulb Temperature {C}
  0,                                      !- Daily Dry-Bulb Temperature Range {deltaC}
  -20.6,                                  !- Humidity Indicating Conditions at Maximum Dry-Bulb
  99063,                                  !- Barometric Pressure {Pa}
  4.9,                                    !- Wind Speed {m/s}
  270,                                    !- Wind Direction {deg}
  0,                                      !- Sky Clearness
  0,                                      !- Rain Indicator
  0,                                      !- Snow Indicator
  21,                                     !- Day of Month
  1,                                      !- Month
  WinterDesignDay,                        !- Day Type
  0,                                      !- Daylight Saving Time Indicator
  WetBulb,                                !- Humidity Indicating Type
  ,                                       !- Humidity Indicating Day Schedule Name
  DefaultMultipliers,                     !- Dry-Bulb Temperature Range Modifier Type
  ,                                       !- Dry-Bulb Temperature Range Modifier Schedule Name
  ASHRAEClearSky;                         !- Solar Model Indicator

OS:SizingPeriod:DesignDay,
  {822791c1-ea73-4b95-be44-2d837462eda9}, !- Handle
  Sizing Period Design Day 2,             !- Name
  33.2,                                   !- Maximum Dry-Bulb Temperature {C}
  10.7,                                   !- Daily Dry-Bulb Temperature Range {deltaC}
  23.8,                                   !- Humidity Indicating Conditions at Maximum Dry-Bulb
  99063,                                  !- Barometric Pressure {Pa}
  5.3,                                    !- Wind Speed {m/s}
  230,                                    !- Wind Direction {deg}
  1,                                      !- Sky Clearness
  0,                                      !- Rain Indicator
  0,                                      !- Snow Indicator
  21,                                     !- Day of Month
  7,                                      !- Month
  SummerDesignDay,                        !- Day Type
  0,                                      !- Daylight Saving Time Indicator
  WetBulb,                                !- Humidity Indicating Type
  ,                                       !- Humidity Indicating Day Schedule Name
  DefaultMultipliers,                     !- Dry-Bulb Temperature Range Modifier Type
  ,                                       !- Dry-Bulb Temperature Range Modifier Schedule Name
  ASHRAEClearSky;                         !- Solar Model Indicator

OS:ScheduleTypeLimits,
  {7a8c782b-0694-48ef-9a06-9d471dcbb60d}, !- Handle
  Temperature,                            !- Name
  -60,                                    !- Lower Limit Value
  200,                                    !- Upper Limit Value
  CONTINUOUS,                             !- Numeric Type
  Temperature;                            !- Unit Type

OS:DefaultScheduleSet,
  {4834b6a2-0729-47f3-b35e-50ff8fa83607}, !- Handle
  Default Schedules,                      !- Name
  ,                                       !- Hours of Operation Schedule Name
  {b7f245a9-f75d-4030-8f98-638a914d3ca5}, !- Number of People Schedule Name
  {5856b72f-9d93-4e5f-842f-fe56b8ce516d}, !- People Activity Level Schedule Name
  {cb968218-f181-456e-8aeb-7a68ec6114e4}, !- Lighting Schedule Name
  {733d7510-372f-4a6d-8902-6da538587c53}, !- Electric Equipment Schedule Name
  {d874646b-98ab-4f4e-81f9-c6ae37443c43}, !- Gas Equipment Schedule Name
  {528e0cc3-6425-4220-a877-76b8a8c6ae7e}, !- Hot Water Equipment Schedule Name
  {ca237b56-13e1-43b4-b192-4f5fd7352e10}, !- Infiltration Schedule Name
  ,                                       !- Steam Equipment Schedule Name
  ;                                       !- Other Equipment Schedule Name

OS:Schedule:Ruleset,
  {b7f245a9-f75d-4030-8f98-638a914d3ca5}, !- Handle
  Medium Office Number of People Schedule, !- Name
  {dc5279b4-f726-404e-aa40-41e036bd8085}, !- Schedule Type Limits Name
  {9d53ba9f-c2c1-4ced-8667-5b5eff4f8347}, !- Default Day Schedule Name
  {3afa3751-848e-4536-b2ed-987bf802a4a0}; !- Summer Design Day Schedule Name

OS:Schedule:Day,
  {9d53ba9f-c2c1-4ced-8667-5b5eff4f8347}, !- Handle
  Medium Office Number of People All Other Days Schedule, !- Name
  {dc5279b4-f726-404e-aa40-41e036bd8085}, !- Schedule Type Limits Name
  ,                                       !- Interpolate to Timestep
  24,                                     !- Hour 1
  0,                                      !- Minute 1
  0;                                      !- Value Until Time 1

OS:Schedule:Day,
  {91bcae0a-1e2b-4c83-93d1-5f491f26c4c2}, !- Handle
  Medium Office Number of People Summer Design Day Schedule, !- Name
  ,                                       !- Schedule Type Limits Name
  ,                                       !- Interpolate to Timestep
  6,                                      !- Hour 1
  0,                                      !- Minute 1
  0,                                      !- Value Until Time 1
  22,                                     !- Hour 2
  0,                                      !- Minute 2
  1,                                      !- Value Until Time 2
  24,                                     !- Hour 3
  0,                                      !- Minute 3
  0.05;                                   !- Value Until Time 3

OS:Schedule:Day,
  {3afa3751-848e-4536-b2ed-987bf802a4a0}, !- Handle
  Medium Office Number of People Summer Design Day Schedule 1, !- Name
  {dc5279b4-f726-404e-aa40-41e036bd8085}, !- Schedule Type Limits Name
  ,                                       !- Interpolate to Timestep
  6,                                      !- Hour 1
  0,                                      !- Minute 1
  0,                                      !- Value Until Time 1
  22,                                     !- Hour 2
  0,                                      !- Minute 2
  1,                                      !- Value Until Time 2
  24,                                     !- Hour 3
  0,                                      !- Minute 3
  0.05;                                   !- Value Until Time 3

OS:Schedule:Rule,
  {75132105-4357-41fb-9de0-5c4a98b923e2}, !- Handle
  Medium Office Number of People Schedule Weekdays Rule, !- Name
  {b7f245a9-f75d-4030-8f98-638a914d3ca5}, !- Schedule Ruleset Name
  1,                                      !- Rule Order
  {6f8a92d4-6c43-4061-998c-a878eb7f4f24}, !- Day Schedule Name
  ,                                       !- Apply Sunday
  Yes,                                    !- Apply Monday
  Yes,                                    !- Apply Tuesday
  Yes,                                    !- Apply Wednesday
  Yes,                                    !- Apply Thursday
  Yes;                                    !- Apply Friday

OS:Schedule:Day,
  {6f8a92d4-6c43-4061-998c-a878eb7f4f24}, !- Handle
  Medium Office Number of People Weekdays Schedule, !- Name
  {dc5279b4-f726-404e-aa40-41e036bd8085}, !- Schedule Type Limits Name
  ,                                       !- Interpolate to Timestep
  6,                                      !- Hour 1
  0,                                      !- Minute 1
  0,                                      !- Value Until Time 1
  7,                                      !- Hour 2
  0,                                      !- Minute 2
  0.1,                                    !- Value Until Time 2
  8,                                      !- Hour 3
  0,                                      !- Minute 3
  0.2,                                    !- Value Until Time 3
  12,                                     !- Hour 4
  0,                                      !- Minute 4
  0.95,                                   !- Value Until Time 4
  13,                                     !- Hour 5
  0,                                      !- Minute 5
  0.5,                                    !- Value Until Time 5
  17,                                     !- Hour 6
  0,                                      !- Minute 6
  0.95,                                   !- Value Until Time 6
  18,                                     !- Hour 7
  0,                                      !- Minute 7
  0.7,                                    !- Value Until Time 7
  20,                                     !- Hour 8
  0,                                      !- Minute 8
  0.4,                                    !- Value Until Time 8
  22,                                     !- Hour 9
  0,                                      !- Minute 9
  0.1,                                    !- Value Until Time 9
  24,                                     !- Hour 10
  0,                                      !- Minute 10
  0.05;                                   !- Value Until Time 10

OS:Schedule:Rule,
  {5f25e82d-ca44-4921-85da-9ecaac25c132}, !- Handle
  Medium Office Number of People Schedule Saturday Rule, !- Name
  {b7f245a9-f75d-4030-8f98-638a914d3ca5}, !- Schedule Ruleset Name
  0,                                      !- Rule Order
  {f325036c-618f-4b41-a3ad-9076e0586b5a}, !- Day Schedule Name
  ,                                       !- Apply Sunday
  ,                                       !- Apply Monday
  ,                                       !- Apply Tuesday
  ,                                       !- Apply Wednesday
  ,                                       !- Apply Thursday
  ,                                       !- Apply Friday
  Yes;                                    !- Apply Saturday

OS:Schedule:Day,
  {f325036c-618f-4b41-a3ad-9076e0586b5a}, !- Handle
  Medium Office Number of People Saturday Schedule, !- Name
  {dc5279b4-f726-404e-aa40-41e036bd8085}, !- Schedule Type Limits Name
  ,                                       !- Interpolate to Timestep
  6,                                      !- Hour 1
  0,                                      !- Minute 1
  0,                                      !- Value Until Time 1
  8,                                      !- Hour 2
  0,                                      !- Minute 2
  0.1,                                    !- Value Until Time 2
  14,                                     !- Hour 3
  0,                                      !- Minute 3
  0.5,                                    !- Value Until Time 3
  17,                                     !- Hour 4
  0,                                      !- Minute 4
  0.1,                                    !- Value Until Time 4
  24,                                     !- Hour 5
  0,                                      !- Minute 5
  0;                                      !- Value Until Time 5

OS:ScheduleTypeLimits,
  {dc5279b4-f726-404e-aa40-41e036bd8085}, !- Handle
  Fractional,                             !- Name
  0,                                      !- Lower Limit Value
  1,                                      !- Upper Limit Value
  Continuous;                             !- Numeric Type

OS:Schedule:Ruleset,
  {5856b72f-9d93-4e5f-842f-fe56b8ce516d}, !- Handle
  Medium Office People Activity Level Schedule, !- Name
  {4130fdb8-6035-4e22-875a-caab84f2f570}, !- Schedule Type Limits Name
  {c61cfac6-d6ed-4c9d-a5cd-8bc0f3095f13}; !- Default Day Schedule Name

OS:Schedule:Day,
  {c61cfac6-d6ed-4c9d-a5cd-8bc0f3095f13}, !- Handle
  Medium Office People Activity Level All Days Schedule, !- Name
  {4130fdb8-6035-4e22-875a-caab84f2f570}, !- Schedule Type Limits Name
  ,                                       !- Interpolate to Timestep
  24,                                     !- Hour 1
  0,                                      !- Minute 1
  120;                                    !- Value Until Time 1

OS:ScheduleTypeLimits,
  {4130fdb8-6035-4e22-875a-caab84f2f570}, !- Handle
  ActivityLevel,                          !- Name
  0,                                      !- Lower Limit Value
  ,                                       !- Upper Limit Value
  Continuous,                             !- Numeric Type
  ActivityLevel;                          !- Unit Type

OS:Schedule:Ruleset,
  {cb968218-f181-456e-8aeb-7a68ec6114e4}, !- Handle
  Medium Office Lighting Schedule,        !- Name
  {dc5279b4-f726-404e-aa40-41e036bd8085}, !- Schedule Type Limits Name
  {c6e3a745-69b8-4349-9f7c-37b9798450e3}, !- Default Day Schedule Name
  {3b34dcb4-2631-4813-a388-de63a88c38b0}, !- Summer Design Day Schedule Name
  {59764bc6-cb05-4a11-ad16-f936e5129db1}; !- Winter Design Day Schedule Name

OS:Schedule:Day,
  {c6e3a745-69b8-4349-9f7c-37b9798450e3}, !- Handle
  Medium Office Lighting All Other Days Schedule, !- Name
  {dc5279b4-f726-404e-aa40-41e036bd8085}, !- Schedule Type Limits Name
  ,                                       !- Interpolate to Timestep
  24,                                     !- Hour 1
  0,                                      !- Minute 1
  0.05;                                   !- Value Until Time 1

OS:Schedule:Day,
  {cd7d5765-320c-41ae-953d-4ded6c5919eb}, !- Handle
  Medium Office Lighting Summer Design Day Schedule, !- Name
  ,                                       !- Schedule Type Limits Name
  ,                                       !- Interpolate to Timestep
  6,                                      !- Hour 1
  0,                                      !- Minute 1
  1,                                      !- Value Until Time 1
  24,                                     !- Hour 2
  0,                                      !- Minute 2
  0;                                      !- Value Until Time 2

OS:Schedule:Day,
  {3b34dcb4-2631-4813-a388-de63a88c38b0}, !- Handle
  Medium Office Lighting Summer Design Day Schedule 1, !- Name
  {dc5279b4-f726-404e-aa40-41e036bd8085}, !- Schedule Type Limits Name
  ,                                       !- Interpolate to Timestep
  6,                                      !- Hour 1
  0,                                      !- Minute 1
  1,                                      !- Value Until Time 1
  24,                                     !- Hour 2
  0,                                      !- Minute 2
  0;                                      !- Value Until Time 2

OS:Schedule:Day,
  {8f7ccff6-6a27-436f-8197-3d9ac9d572ff}, !- Handle
  Medium Office Lighting Winter Design Day Schedule, !- Name
  ,                                       !- Schedule Type Limits Name
  ,                                       !- Interpolate to Timestep
  24,                                     !- Hour 1
  0,                                      !- Minute 1
  0;                                      !- Value Until Time 1

OS:Schedule:Day,
  {59764bc6-cb05-4a11-ad16-f936e5129db1}, !- Handle
  Medium Office Lighting Winter Design Day Schedule 1, !- Name
  {dc5279b4-f726-404e-aa40-41e036bd8085}, !- Schedule Type Limits Name
  ,                                       !- Interpolate to Timestep
  24,                                     !- Hour 1
  0,                                      !- Minute 1
  0;                                      !- Value Until Time 1

OS:Schedule:Rule,
  {8f5b399a-f590-444a-8b95-08650ffbffe7}, !- Handle
  Medium Office Lighting Schedule Weekdays Rule, !- Name
  {cb968218-f181-456e-8aeb-7a68ec6114e4}, !- Schedule Ruleset Name
  1,                                      !- Rule Order
  {04a0fd01-154f-42c8-8d23-e8bb4f44d8be}, !- Day Schedule Name
  ,                                       !- Apply Sunday
  Yes,                                    !- Apply Monday
  Yes,                                    !- Apply Tuesday
  Yes,                                    !- Apply Wednesday
  Yes,                                    !- Apply Thursday
  Yes;                                    !- Apply Friday

OS:Schedule:Day,
  {04a0fd01-154f-42c8-8d23-e8bb4f44d8be}, !- Handle
  Medium Office Lighting Weekdays Schedule, !- Name
  {dc5279b4-f726-404e-aa40-41e036bd8085}, !- Schedule Type Limits Name
  ,                                       !- Interpolate to Timestep
  5,                                      !- Hour 1
  0,                                      !- Minute 1
  0.05,                                   !- Value Until Time 1
  7,                                      !- Hour 2
  0,                                      !- Minute 2
  0.1,                                    !- Value Until Time 2
  8,                                      !- Hour 3
  0,                                      !- Minute 3
  0.3,                                    !- Value Until Time 3
  17,                                     !- Hour 4
  0,                                      !- Minute 4
  0.9,                                    !- Value Until Time 4
  18,                                     !- Hour 5
  0,                                      !- Minute 5
  0.7,                                    !- Value Until Time 5
  20,                                     !- Hour 6
  0,                                      !- Minute 6
  0.5,                                    !- Value Until Time 6
  22,                                     !- Hour 7
  0,                                      !- Minute 7
  0.3,                                    !- Value Until Time 7
  23,                                     !- Hour 8
  0,                                      !- Minute 8
  0.1,                                    !- Value Until Time 8
  24,                                     !- Hour 9
  0,                                      !- Minute 9
  0.05;                                   !- Value Until Time 9

OS:Schedule:Rule,
  {1b31356c-e959-490d-905e-8fb08502a947}, !- Handle
  Medium Office Lighting Schedule Saturday Rule, !- Name
  {cb968218-f181-456e-8aeb-7a68ec6114e4}, !- Schedule Ruleset Name
  0,                                      !- Rule Order
  {a2b66279-03ac-4dbc-ab9c-03fa0b6baee3}, !- Day Schedule Name
  ,                                       !- Apply Sunday
  ,                                       !- Apply Monday
  ,                                       !- Apply Tuesday
  ,                                       !- Apply Wednesday
  ,                                       !- Apply Thursday
  ,                                       !- Apply Friday
  Yes;                                    !- Apply Saturday

OS:Schedule:Day,
  {a2b66279-03ac-4dbc-ab9c-03fa0b6baee3}, !- Handle
  Medium Office Lighting Saturday Schedule, !- Name
  {dc5279b4-f726-404e-aa40-41e036bd8085}, !- Schedule Type Limits Name
  ,                                       !- Interpolate to Timestep
  6,                                      !- Hour 1
  0,                                      !- Minute 1
  0.05,                                   !- Value Until Time 1
  8,                                      !- Hour 2
  0,                                      !- Minute 2
  0.1,                                    !- Value Until Time 2
  14,                                     !- Hour 3
  0,                                      !- Minute 3
  0.5,                                    !- Value Until Time 3
  17,                                     !- Hour 4
  0,                                      !- Minute 4
  0.15,                                   !- Value Until Time 4
  24,                                     !- Hour 5
  0,                                      !- Minute 5
  0.05;                                   !- Value Until Time 5

OS:Schedule:Ruleset,
  {733d7510-372f-4a6d-8902-6da538587c53}, !- Handle
  Medium Office Electric Equipment Schedule, !- Name
  {dc5279b4-f726-404e-aa40-41e036bd8085}, !- Schedule Type Limits Name
  {3e4c924c-507e-4bd1-b665-25970b8bb319}, !- Default Day Schedule Name
  {6088cdad-4861-4927-886c-8f3b9046b0eb}, !- Summer Design Day Schedule Name
  {151fb762-c87f-4c27-bfa5-e714ec15e79c}; !- Winter Design Day Schedule Name

OS:Schedule:Day,
  {3e4c924c-507e-4bd1-b665-25970b8bb319}, !- Handle
  Medium Office Electric Equipment All Other Days Schedule, !- Name
  {dc5279b4-f726-404e-aa40-41e036bd8085}, !- Schedule Type Limits Name
  ,                                       !- Interpolate to Timestep
  24,                                     !- Hour 1
  0,                                      !- Minute 1
  0.3;                                    !- Value Until Time 1

OS:Schedule:Day,
  {35c4339a-fb50-4f44-b2db-1354cb1ec6c4}, !- Handle
  Medium Office Electric Equipment Summer Design Day Schedule, !- Name
  ,                                       !- Schedule Type Limits Name
  ,                                       !- Interpolate to Timestep
  6,                                      !- Hour 1
  0,                                      !- Minute 1
  1,                                      !- Value Until Time 1
  24,                                     !- Hour 2
  0,                                      !- Minute 2
  0;                                      !- Value Until Time 2

OS:Schedule:Day,
  {6088cdad-4861-4927-886c-8f3b9046b0eb}, !- Handle
  Medium Office Electric Equipment Summer Design Day Schedule 1, !- Name
  {dc5279b4-f726-404e-aa40-41e036bd8085}, !- Schedule Type Limits Name
  ,                                       !- Interpolate to Timestep
  6,                                      !- Hour 1
  0,                                      !- Minute 1
  1,                                      !- Value Until Time 1
  24,                                     !- Hour 2
  0,                                      !- Minute 2
  0;                                      !- Value Until Time 2

OS:Schedule:Day,
  {de215214-3d13-456e-bce9-9be258e89b36}, !- Handle
  Medium Office Electric Equipment Winter Design Day Schedule, !- Name
  ,                                       !- Schedule Type Limits Name
  ,                                       !- Interpolate to Timestep
  24,                                     !- Hour 1
  0,                                      !- Minute 1
  0;                                      !- Value Until Time 1

OS:Schedule:Day,
  {151fb762-c87f-4c27-bfa5-e714ec15e79c}, !- Handle
  Medium Office Electric Equipment Winter Design Day Schedule 1, !- Name
  {dc5279b4-f726-404e-aa40-41e036bd8085}, !- Schedule Type Limits Name
  ,                                       !- Interpolate to Timestep
  24,                                     !- Hour 1
  0,                                      !- Minute 1
  0;                                      !- Value Until Time 1

OS:Schedule:Rule,
  {e0e4a844-0511-4318-bba7-f8672946b294}, !- Handle
  Medium Office Electric Equipment Schedule Weekdays Rule, !- Name
  {733d7510-372f-4a6d-8902-6da538587c53}, !- Schedule Ruleset Name
  1,                                      !- Rule Order
  {ee7967ee-21ac-4d8c-bdb5-faa9a0808f97}, !- Day Schedule Name
  ,                                       !- Apply Sunday
  Yes,                                    !- Apply Monday
  Yes,                                    !- Apply Tuesday
  Yes,                                    !- Apply Wednesday
  Yes,                                    !- Apply Thursday
  Yes;                                    !- Apply Friday

OS:Schedule:Day,
  {ee7967ee-21ac-4d8c-bdb5-faa9a0808f97}, !- Handle
  Medium Office Electric Equipment Weekdays Schedule, !- Name
  {dc5279b4-f726-404e-aa40-41e036bd8085}, !- Schedule Type Limits Name
  ,                                       !- Interpolate to Timestep
  8,                                      !- Hour 1
  0,                                      !- Minute 1
  0.4,                                    !- Value Until Time 1
  12,                                     !- Hour 2